** written by FreeCAD inp file writer for CalculiX,Abaqus meshes
** highest dimension mesh elements only.

** Nodes
*Node, NSET=Nall
1, 590, 470, 10
2, 590, -470, 10
3, -590, -470, 10
4, -590, 470, 10
5, 590, 470, 150
6, 590, -470, 150
7, -590, -470, 150
8, -590, 470, 150
9, -480, 540, 90
10, -60, 540, 90
11, 60, 540, 90
12, 210, 540, 90
13, 330, 540, 90
14, 480, 540, 90
15, 660, 120, 90
16, 660, 240, 90
17, 660, -120, 90
18, 660, -240, 90
19, 600, -240, 90
20, 600, -120, 90
** ... 21898 like lines cut


** Volume elements
*Element, TYPE=C3D4, ELSET=Evolumes
48056, 20963, 21358, 20997, 21438
48057, 7471, 13257, 1150, 13256
48058, 21286, 21287, 21186, 20898
48059, 20690, 326, 21077, 325
48060, 16551, 167, 16550, 18046
48061, 21801, 19462, 19398, 19461
48062, 16606, 3215, 3216, 18105
48063, 3485, 3445, 3460, 3484
48064, 18022, 18765, 18800, 18795
48065, 19586, 19691, 20457, 20456
48066, 1291, 1241, 1240, 17699
48067, 20901, 20900, 20984, 21284
48068, 19748, 20492, 20391, 20392
48069, 7471, 13257, 7472, 1150
48070, 17491, 17097, 17179, 17534
48071, 3483, 3443, 3462, 3482
48072, 20718, 20823, 21157, 20717
48073, 17598, 17303, 17639, 17640
48074, 20982, 21287, 20898, 20981
48075, 21076, 21075, 21186, 20800
** ... 63771 like lines cut

** Define element set Eall
*ELSET, ELSET=Eall
Evolumes



***********************************************************
** Element sets for materials and FEM element type (solid, shell, beam, fluid)
*ELSET,ELSET=MaterialSolidSolid
48056,
48058,
48059,
48060,
48061,
48062,
48063,
48064,
48065,
48066,
48067,
48068,
48070,
48071,
48072,
48073,
48074,
48075,
48076,
48077,
** ... 18532 like lines cut
*ELSET,ELSET=MaterialSolid001Solid
48057,
48069,
48083,
48085,
48090,
48092,
48125,
48139,
48224,
48229,
48244,
48246,
48296,
48307,
48309,
48313,
48348,
48353,
48354,
48359,
** ... 45219 like lines cut

***********************************************************
** constraints fixed node sets
** ConstraintFixed
*NSET,NSET=ConstraintFixed
9,
10,
11,
12,
13,
14,
15,
16,
17,
18,
19,
20,
21,
22,
23,
24,
25,
26,
27,
28,
** ... 190 like lines cut

** Physical constants for SI(mm) unit system with Kelvins
*PHYSICAL CONSTANTS, ABSOLUTE ZERO=0, STEFAN BOLTZMANN=5.670374419e-11

***********************************************************
** Materials
** see information about units at file end
** FreeCAD material name: Aluminum-6061-T6
** MaterialSolid-design
*MATERIAL, NAME=MaterialSolid
*ELASTIC
69000,0.33
** FreeCAD material name: Aluminum-6061-T6
** MaterialSolid-nondesign
*MATERIAL, NAME=MaterialSolid001
*ELASTIC
69000,0.33

***********************************************************
** Sections
*SOLID SECTION, ELSET=MaterialSolidSolid, MATERIAL=MaterialSolid
*SOLID SECTION, ELSET=MaterialSolid001Solid, MATERIAL=MaterialSolid001

***********************************************************
** At least one step is needed to run an CalculiX analysis of FreeCAD
*STEP, INC=2000
*STATIC


***********************************************************
** Fixed Constraints
** ConstraintFixed
*BOUNDARY
ConstraintFixed,1
ConstraintFixed,2
ConstraintFixed,3


***********************************************************
** constraints force node loads
*CLOAD
** ConstraintForce
** node loads on shape: BooleanFragments:Face92
3,3,-0.1547844827586
116,3,-0.1621551724138
128,3,-0.1978026382912
130,3,-0.1490517241379
797,3,-0.6116717787213
798,3,-0.3806776588428
799,3,-0.4836130574558
800,3,-0.5384186823992
801,3,-0.532423036546
802,3,-0.5198484542656
803,3,-0.4988540872618
804,3,-0.4642409789833
805,3,-0.4429515346065
806,3,-0.4317027906098
807,3,-0.4258485403661
808,3,-0.4407514047006
809,3,-0.4678877875213
810,3,-0.4969194960393
811,3,-0.4962456431053
812,3,-0.4758756995523
** ... 744 like lines cut

** node loads on shape: BooleanFragments:Face91
4,3,-0.2033245626977
122,3,-0.1968349351868
125,3,-0.1547844827586
126,3,-0.1621551724138
959,3,-0.4996655201451
960,3,-0.320754400875
961,3,-0.4076146019544
962,3,-0.4600368831833
963,3,-0.4785423821309
964,3,-0.4834891307241
965,3,-0.493471568956
966,3,-0.4698855313616
967,3,-0.4285377636024
968,3,-0.4122719131122
969,3,-0.4260758097115
970,3,-0.4540203520985
971,3,-0.4638422330065
972,3,-0.4699952524524
973,3,-0.4759917229782
974,3,-0.4884183722896
** ... 778 like lines cut

** node loads on shape: BooleanFragments:Face93
112,3,-0.164367816092
114,3,-0.1972033174453
118,3,-0.1580459770115
120,3,-0.1960493841837
631,3,-0.4950691505747
632,3,-0.3156074511908
633,3,-0.4060359534047
634,3,-0.4536822980376
635,3,-0.4778134916747
636,3,-0.5040994164686
637,3,-0.5123563234274
638,3,-0.504269850306
639,3,-0.5049307911889
640,3,-0.5126962770263
641,3,-0.5443402049358
642,3,-0.5270664811478
643,3,-0.4835658845153
644,3,-0.4842976327277
645,3,-0.4991687090386
646,3,-0.5066287007833
** ... 830 like lines cut

** node loads on shape: BooleanFragments:Face95
108,3,-0.1508620689655
132,3,-0.164367816092
135,3,-0.1580459770115
136,3,-0.1994359813118
301,3,-0.4855994469531
302,3,-0.4509921876833
303,3,-0.489859519647
304,3,-0.482394217452
305,3,-0.483353370507
306,3,-0.4792072942438
307,3,-0.4683388125912
308,3,-0.4682108224417
309,3,-0.4798475012576
310,3,-0.4684978779472
311,3,-0.4645724138719
312,3,-0.4801320528721
313,3,-0.483334259098
314,3,-0.4794914752018
315,3,-0.4793134798136
316,3,-0.4930689449112
** ... 769 like lines cut

** node loads on shape: BooleanFragments:Face94
1,3,-0.1547844827586
104,3,-0.1621551724138
106,3,-0.209451012002
110,3,-0.1490517241379
467,3,-0.4755939963308
468,3,-0.4223133613321
469,3,-0.433750322135
470,3,-0.447060963721
471,3,-0.4585235932375
472,3,-0.4590004768963
473,3,-0.4518342345789
474,3,-0.4440498477381
475,3,-0.4371737378494
476,3,-0.4359178260136
477,3,-0.4458757230726
478,3,-0.488434516441
479,3,-0.5017627771562
480,3,-0.4661781283816
481,3,-0.4476485541182
482,3,-0.4465109909041
** ... 867 like lines cut

** node loads on shape: BooleanFragments:Face96
2,3,-0.1561494252874
98,3,-0.1621551724138
100,3,-0.1547844827586
102,3,-0.1490517241379
137,3,-0.6517907900115
138,3,-0.4957671401806
139,3,-0.4560558819853
140,3,-0.4303013979285
141,3,-0.445603554747
142,3,-0.4724494443752
143,3,-0.4906428257565
144,3,-0.4939564664011
145,3,-0.5046961967839
146,3,-0.4966973649791
147,3,-0.4873731708572
148,3,-0.4740353916473
149,3,-0.4523008518046
150,3,-0.4578356112404
151,3,-0.4764756924875
152,3,-0.4942386420951
** ... 805 like lines cut



***********************************************************
** Outputs --> frd file
*NODE FILE
U
*EL FILE
S, E
** outputs --> dat file
** reaction forces for Constraint fixed
*NODE PRINT, NSET=ConstraintFixed, TOTALS=ONLY
RF

*OUTPUT, FREQUENCY=1
***********************************************************
*END STEP

***********************************************************
** CalculiX Input file
**   written by    --> FreeCAD 1.0.0
**   written on    --> Tue Mar  4 22:40:46 2025
**   file name     --> Rectangle.FCStd
**   analysis name --> Analysis
**
**
***********************************************************
**  About units:
**  See ccx manual, ccx does not know about any unit.
**  Golden rule: The user must make sure that the numbers they provide have consistent units.
**  The user is the FreeCAD calculix writer module ;-)
**
**  The unit system which is used at Guido Dhondt's company: mm, N, s, K
**  Since Length and Mass are connected by Force, if Length is mm the Mass is in t to get N
**  The following units are used to write to inp file:
**
**  Length: mm (this includes the mesh geometry)
**  Mass: t
**  TimeSpan: s
**  Temperature: K
**
**  This leads to:
**  Force: N
**  Pressure: N/mm^2 == MPa (Young's Modulus has unit Pressure)
**  Density: t/mm^3
**  Gravity: mm/s^2
**  Thermal conductivity: t*mm/K/s^3 == as W/m/K == kW/mm/K
**  Specific Heat: mm^2/s^2/K = J/kg/K == kJ/t/K
**
